<?xml version="1.0" encoding="UTF-8"?>

<!-- generated on 2024-04-06 15:19:13 by Eclipse SUMO netedit Version 1.19.0
-->

<routes xmlns:xsi="http://www.w3.org/2001/XMLSchema-instance" xsi:noNamespaceSchemaLocation="http://sumo.dlr.de/xsd/routes_file.xsd">
    <!-- VTypes -->
    <vType id="veh_passenger" vClass="passenger"/>
    <!-- Vehicles, persons and containers (sorted by depart) -->
    <trip id="veh0" type="veh_passenger" depart="0.00" departLane="best" departSpeed="max" from="-1155698043" to="-1155706689"/>
    <trip id="veh1" type="veh_passenger" depart="1.01" departLane="best" departSpeed="max" from="1152875245" to="1152869897#0"/>
    <trip id="veh2" type="veh_passenger" depart="2.01" departLane="best" departSpeed="max" from="-1155698043" to="-1155706689"/>
    <trip id="veh3" type="veh_passenger" depart="3.02" departLane="best" departSpeed="max" from="-1155698043" to="-1155706689"/>
    <trip id="veh4" type="veh_passenger" depart="4.02" departLane="best" departSpeed="max" from="1152875245" to="1152869897#0"/>
    <trip id="veh5" type="veh_passenger" depart="5.03" departLane="best" departSpeed="max" from="1152875245" to="1152869897#0"/>
    <trip id="veh6" type="veh_passenger" depart="6.03" departLane="best" departSpeed="max" from="-1155698043" to="-1155706689"/>
    <trip id="veh7" type="veh_passenger" depart="7.04" departLane="best" departSpeed="max" from="-1155698043" to="-1155706689"/>
    <trip id="veh8" type="veh_passenger" depart="8.04" departLane="best" departSpeed="max" from="1152875245" to="1152869897#0"/>
    <trip id="veh9" type="veh_passenger" depart="9.05" departLane="best" departSpeed="max" from="1152875245" to="1152869897#0"/>
    <trip id="veh10" type="veh_passenger" depart="10.05" departLane="best" departSpeed="max" from="1152875245" to="1152869897#0"/>
    <trip id="veh11" type="veh_passenger" depart="11.06" departLane="best" departSpeed="max" from="1152875245" to="1152869897#0"/>
    <trip id="veh12" type="veh_passenger" depart="12.06" departLane="best" departSpeed="max" from="1152875245" to="1152869897#0"/>
    <trip id="veh13" type="veh_passenger" depart="13.07" departLane="best" departSpeed="max" from="-1155698043" to="-1155706689"/>
    <trip id="veh14" type="veh_passenger" depart="14.07" departLane="best" departSpeed="max" from="-1155698043" to="-1155706689"/>
    <trip id="veh15" type="veh_passenger" depart="15.08" departLane="best" departSpeed="max" from="-1155698043" to="-1155706689"/>
    <trip id="veh16" type="veh_passenger" depart="16.09" departLane="best" departSpeed="max" from="-1155698043" to="-1155706689"/>
    <trip id="veh17" type="veh_passenger" depart="17.09" departLane="best" departSpeed="max" from="1152875245" to="1152869897#0"/>
    <trip id="veh18" type="veh_passenger" depart="18.10" departLane="best" departSpeed="max" from="-1155698043" to="-1155706689"/>
    <trip id="veh19" type="veh_passenger" depart="19.10" departLane="best" departSpeed="max" from="1152875245" to="1152869897#0"/>
    <trip id="veh20" type="veh_passenger" depart="20.11" departLane="best" departSpeed="max" from="1152875245" to="1152869897#0"/>
    <trip id="veh21" type="veh_passenger" depart="21.11" departLane="best" departSpeed="max" from="1152875245" to="1152869897#0"/>
    <trip id="veh22" type="veh_passenger" depart="22.12" departLane="best" departSpeed="max" from="-1155698043" to="-1155706689"/>
    <trip id="veh23" type="veh_passenger" depart="23.12" departLane="best" departSpeed="max" from="-1155698043" to="-1155706689"/>
    <trip id="veh24" type="veh_passenger" depart="24.13" departLane="best" departSpeed="max" from="-1155698043" to="-1155706689"/>
    <trip id="veh25" type="veh_passenger" depart="25.13" departLane="best" departSpeed="max" from="1152875245" to="1152869897#0"/>
    <trip id="veh26" type="veh_passenger" depart="26.14" departLane="best" departSpeed="max" from="-1155698043" to="-1155706689"/>
    <trip id="veh27" type="veh_passenger" depart="27.14" departLane="best" departSpeed="max" from="1152875245" to="1152869897#0"/>
    <trip id="veh28" type="veh_passenger" depart="28.15" departLane="best" departSpeed="max" from="-1155698043" to="-1155706689"/>
    <trip id="veh29" type="veh_passenger" depart="29.15" departLane="best" departSpeed="max" from="-1155698043" to="-1155706689"/>
    <trip id="veh30" type="veh_passenger" depart="30.16" departLane="best" departSpeed="max" from="1152875245" to="1152869897#0"/>
    <trip id="veh31" type="veh_passenger" depart="31.16" departLane="best" departSpeed="max" from="1152875245" to="1152869897#0"/>
    <trip id="veh32" type="veh_passenger" depart="32.17" departLane="best" departSpeed="max" from="1152875245" to="1152869897#0"/>
    <trip id="veh33" type="veh_passenger" depart="33.18" departLane="best" departSpeed="max" from="-1155698043" to="-1155706689"/>
    <trip id="veh34" type="veh_passenger" depart="34.18" departLane="best" from="-1152869898" to="-1155706689"/>
    <trip id="veh35" type="veh_passenger" depart="35.19" departLane="best" departSpeed="max" from="1152875245" to="1152869897#0"/>
    <trip id="veh36" type="veh_passenger" depart="36.19" departLane="best" departSpeed="max" from="1152875245" to="1152869897#0"/>
    <trip id="veh37" type="veh_passenger" depart="37.20" departLane="best" departSpeed="max" from="1152875245" to="1152869897#0"/>
    <trip id="veh38" type="veh_passenger" depart="38.20" departLane="best" from="-1152869898" to="-1155706689"/>
    <trip id="veh39" type="veh_passenger" depart="39.21" departLane="best" departSpeed="max" from="1152875245" to="1152869897#0"/>
    <trip id="veh40" type="veh_passenger" depart="40.21" departLane="best" departSpeed="max" from="-1155698043" to="-1155706689"/>
    <trip id="veh41" type="veh_passenger" depart="41.22" departLane="best" departSpeed="max" from="1152875245" to="1152869897#0"/>
    <trip id="veh42" type="veh_passenger" depart="42.22" departLane="best" departSpeed="max" from="-1155698043" to="-1155706689"/>
    <trip id="veh43" type="veh_passenger" depart="43.23" departLane="best" departSpeed="max" from="-1155698043" to="-1155706689"/>
    <trip id="veh44" type="veh_passenger" depart="44.23" departLane="best" departSpeed="max" from="1152875245" to="1152869897#0"/>
    <trip id="veh45" type="veh_passenger" depart="45.24" departLane="best" departSpeed="max" from="-1155698043" to="-1155706689"/>
    <trip id="veh46" type="veh_passenger" depart="46.24" departLane="best" departSpeed="max" from="1152875245" to="1152869897#0"/>
    <trip id="veh47" type="veh_passenger" depart="47.25" departLane="best" departSpeed="max" from="-1155698043" to="-1155706689"/>
    <trip id="veh48" type="veh_passenger" depart="48.26" departLane="best" departSpeed="max" from="-1155698043" to="-1155706689"/>
    <trip id="veh49" type="veh_passenger" depart="49.26" departLane="best" departSpeed="max" from="-1155698043" to="-1155706689"/>
    <trip id="veh50" type="veh_passenger" depart="50.27" departLane="best" departSpeed="max" from="1152875245" to="1152869897#0"/>
    <trip id="veh51" type="veh_passenger" depart="51.27" departLane="best" departSpeed="max" from="-1155698043" to="-1155706689"/>
    <trip id="veh52" type="veh_passenger" depart="52.28" departLane="best" departSpeed="max" from="-1155698043" to="-1155706689"/>
    <trip id="veh53" type="veh_passenger" depart="53.28" departLane="best" departSpeed="max" from="1152875245" to="1152869897#0"/>
    <trip id="veh54" type="veh_passenger" depart="54.29" departLane="best" departSpeed="max" from="-1155698043" to="-1155706689"/>
    <trip id="veh55" type="veh_passenger" depart="55.29" departLane="best" departSpeed="max" from="-1155698043" to="-1155706689"/>
    <trip id="veh56" type="veh_passenger" depart="56.30" departLane="best" departSpeed="max" from="-1155698043" to="-1155706689"/>
    <trip id="veh57" type="veh_passenger" depart="57.30" departLane="best" departSpeed="max" from="1152875245" to="1152869897#0"/>
    <trip id="veh58" type="veh_passenger" depart="58.31" departLane="best" departSpeed="max" from="1152875245" to="1152869897#0"/>
    <trip id="veh59" type="veh_passenger" depart="59.31" departLane="best" departSpeed="max" from="-1155698043" to="-1155706689"/>
    <trip id="veh60" type="veh_passenger" depart="60.32" departLane="best" departSpeed="max" from="-1155698043" to="-1155706689"/>
    <trip id="veh61" type="veh_passenger" depart="61.32" departLane="best" departSpeed="max" from="-1155698043" to="-1155706689"/>
    <trip id="veh62" type="veh_passenger" depart="62.33" departLane="best" departSpeed="max" from="1152875245" to="1152869898"/>
    <trip id="veh63" type="veh_passenger" depart="63.33" departLane="best" departSpeed="max" from="1152875245" to="1152869897#0"/>
    <trip id="veh64" type="veh_passenger" depart="64.34" departLane="best" departSpeed="max" from="-1155698043" to="-1155706689"/>
    <trip id="veh65" type="veh_passenger" depart="65.35" departLane="best" departSpeed="max" from="1152875245" to="1152869897#0"/>
    <trip id="veh66" type="veh_passenger" depart="66.35" departLane="best" departSpeed="max" from="1152875245" to="1152869897#0"/>
    <trip id="veh67" type="veh_passenger" depart="67.36" departLane="best" from="1152869898" to="1152869897#0"/>
    <trip id="veh68" type="veh_passenger" depart="68.36" departLane="best" departSpeed="max" from="-1155698043" to="-1155706689"/>
    <trip id="veh69" type="veh_passenger" depart="69.37" departLane="best" departSpeed="max" from="1152875245" to="1152869897#0"/>
    <trip id="veh70" type="veh_passenger" depart="70.37" departLane="best" departSpeed="max" from="-1155698043" to="-1155706689"/>
    <trip id="veh71" type="veh_passenger" depart="71.38" departLane="best" departSpeed="max" from="1152875245" to="1152869897#0"/>
    <trip id="veh72" type="veh_passenger" depart="72.38" departLane="best" departSpeed="max" from="1152875245" to="1152869897#0"/>
    <trip id="veh73" type="veh_passenger" depart="73.39" departLane="best" departSpeed="max" from="-1155698043" to="-1155706689"/>
    <trip id="veh74" type="veh_passenger" depart="74.39" departLane="best" departSpeed="max" from="-1155698043" to="-1155706689"/>
    <trip id="veh75" type="veh_passenger" depart="75.40" departLane="best" departSpeed="max" from="1152875245" to="1152869898"/>
    <trip id="veh76" type="veh_passenger" depart="76.40" departLane="best" departSpeed="max" from="-1155698043" to="-1155706689"/>
    <trip id="veh77" type="veh_passenger" depart="77.41" departLane="best" departSpeed="max" from="1152875245" to="1152869897#0"/>
    <trip id="veh78" type="veh_passenger" depart="78.41" departLane="best" departSpeed="max" from="-1155698043" to="-1155706689"/>
    <trip id="veh79" type="veh_passenger" depart="79.42" departLane="best" departSpeed="max" from="1152875245" to="1152869897#0"/>
    <trip id="veh80" type="veh_passenger" depart="80.43" departLane="best" departSpeed="max" from="1152875245" to="1152869897#0"/>
    <trip id="veh81" type="veh_passenger" depart="81.43" departLane="best" departSpeed="max" from="1152875245" to="1152869897#0"/>
    <trip id="veh82" type="veh_passenger" depart="82.44" departLane="best" departSpeed="max" from="-1155698043" to="-1155706689"/>
    <trip id="veh83" type="veh_passenger" depart="83.44" departLane="best" departSpeed="max" from="-1155698043" to="-1155706689"/>
    <trip id="veh84" type="veh_passenger" depart="84.45" departLane="best" from="1152869898" to="1152869897#0"/>
    <trip id="veh85" type="veh_passenger" depart="85.45" departLane="best" departSpeed="max" from="1152875245" to="1152869897#0"/>
    <trip id="veh86" type="veh_passenger" depart="86.46" departLane="best" departSpeed="max" from="-1155698043" to="-1155706689"/>
    <trip id="veh87" type="veh_passenger" depart="87.46" departLane="best" departSpeed="max" from="1152875245" to="1152869897#0"/>
    <trip id="veh88" type="veh_passenger" depart="88.47" departLane="best" departSpeed="max" from="1152875245" to="1152869897#0"/>
    <trip id="veh89" type="veh_passenger" depart="89.47" departLane="best" departSpeed="max" from="-1155698043" to="-1155706689"/>
    <trip id="veh90" type="veh_passenger" depart="90.48" departLane="best" departSpeed="max" from="1152875245" to="1152869897#0"/>
    <trip id="veh91" type="veh_passenger" depart="91.48" departLane="best" departSpeed="max" from="-1155698043" to="-1155706689"/>
    <trip id="veh92" type="veh_passenger" depart="92.49" departLane="best" departSpeed="max" from="1152875245" to="1152869897#0"/>
    <trip id="veh93" type="veh_passenger" depart="93.49" departLane="best" departSpeed="max" from="1152875245" to="1152869897#0"/>
    <trip id="veh94" type="veh_passenger" depart="94.50" departLane="best" departSpeed="max" from="1152875245" to="1152869897#0"/>
    <trip id="veh95" type="veh_passenger" depart="95.50" departLane="best" departSpeed="max" from="1152875245" to="1152869897#0"/>
    <trip id="veh96" type="veh_passenger" depart="96.51" departLane="best" departSpeed="max" from="1152875245" to="1152869897#0"/>
    <trip id="veh97" type="veh_passenger" depart="97.52" departLane="best" departSpeed="max" from="-1155698043" to="-1155706689"/>
    <trip id="veh98" type="veh_passenger" depart="98.52" departLane="best" departSpeed="max" from="-1155698043" to="-1155706689"/>
    <trip id="veh99" type="veh_passenger" depart="99.53" departLane="best" departSpeed="max" from="1152875245" to="1152869897#0"/>
</routes>
