<?xml version="1.0" encoding="UTF-8"?>

<!-- generated on 2024-03-10 20:48:52.243038 by osmWebWizard.py UNKNOWN
<configuration>
    <net-file value="/Users/stepa-kos/Desktop/vkr/practice/sumo-files/simulation/2024-03-10-20-48-50/osm.net.xml.gz"/>
    <output-trip-file value="/Users/stepa-kos/Desktop/vkr/practice/sumo-files/simulation/2024-03-10-20-48-50/osm.passenger.trips.xml"/>
    <route-file value="/Users/stepa-kos/Desktop/vkr/practice/sumo-files/simulation/2024-03-10-20-48-50/osm.passenger.rou.xml"/>
    <prefix value="veh"/>
    <trip-attributes value="departLane=&quot;best&quot;"/>
    <fringe-start-attributes value="departSpeed=&quot;max&quot;"/>
    <vehicle-class value="passenger"/>
    <lanes value="True"/>
    <fringe-factor value="1000"/>
    <allow-fringe.min-length value="1000.0"/>
    <via-edge-types value="highway.motorway,highway.motorway_link,highway.trunk_link,highway.primary_link,highway.secondary_link,highway.tertiary_link"/>
    <min-distance value="300.0"/>
    <min-distance.fringe value="10.0"/>
    <remove-loops value="True"/>
    <validate value="True"/>
    <end value="10.0"/>
    <insertion-density value="3000.0"/>
</configuration>
-->

<!-- generated on 2024-03-10 20:48:52 by Eclipse SUMO duarouter Version 1.19.0
<configuration xmlns:xsi="http://www.w3.org/2001/XMLSchema-instance" xsi:noNamespaceSchemaLocation="http://sumo.dlr.de/xsd/duarouterConfiguration.xsd">

    <input>
        <net-file value="/Users/stepa-kos/Desktop/vkr/practice/sumo-files/simulation/2024-03-10-20-48-50/osm.net.xml.gz"/>
        <route-files value="/Users/stepa-kos/Desktop/vkr/practice/sumo-files/simulation/2024-03-10-20-48-50/osm.passenger.trips.xml"/>
    </input>

    <output>
        <output-file value="/Users/stepa-kos/Desktop/vkr/practice/sumo-files/simulation/2024-03-10-20-48-50/osm.passenger.trips.xml.tmp"/>
        <alternatives-output value="NUL"/>
        <write-trips value="true"/>
    </output>

    <processing>
        <remove-loops value="true"/>
    </processing>

    <time>
        <begin value="0.0"/>
        <end value="10.0"/>
    </time>

    <report>
        <no-warnings value="true"/>
        <ignore-errors value="true"/>
        <no-step-log value="true"/>
    </report>

</configuration>
-->

<routes xmlns:xsi="http://www.w3.org/2001/XMLSchema-instance" xsi:noNamespaceSchemaLocation="http://sumo.dlr.de/xsd/routes_file.xsd">
    <vType id="veh_passenger" vClass="passenger"/>
    <trip id="veh0" type="veh_passenger" depart="0.00" departLane="best" departSpeed="max" from="-1152875244#3" to="-1152875499#0"/>
    <trip id="veh1" type="veh_passenger" depart="0.55" departLane="best" departSpeed="max" from="1152875500" to="1152875244#3"/>
    <trip id="veh2" type="veh_passenger" depart="1.11" departLane="best" departSpeed="max" from="-1152875244#3" to="-1152875499#0"/>
    <trip id="veh3" type="veh_passenger" depart="1.66" departLane="best" departSpeed="max" from="-1152875244#3" to="-1152875499#0"/>
    <trip id="veh4" type="veh_passenger" depart="2.22" departLane="best" departSpeed="max" from="1152875500" to="1152875244#3"/>
    <trip id="veh5" type="veh_passenger" depart="2.77" departLane="best" departSpeed="max" from="1152875500" to="1152875244#3"/>
    <trip id="veh6" type="veh_passenger" depart="3.32" departLane="best" departSpeed="max" from="-1152875244#3" to="-1152875499#0"/>
    <trip id="veh7" type="veh_passenger" depart="3.88" departLane="best" departSpeed="max" from="-1152875244#3" to="-1152875499#0"/>
    <trip id="veh8" type="veh_passenger" depart="4.43" departLane="best" departSpeed="max" from="1152875500" to="1152875244#3"/>
    <trip id="veh9" type="veh_passenger" depart="4.99" departLane="best" departSpeed="max" from="1152875500" to="1152875244#3"/>
    <trip id="veh10" type="veh_passenger" depart="5.54" departLane="best" departSpeed="max" from="1152875500" to="1152875244#3"/>
    <trip id="veh11" type="veh_passenger" depart="6.10" departLane="best" departSpeed="max" from="1152875500" to="1152875244#3"/>
    <trip id="veh12" type="veh_passenger" depart="6.65" departLane="best" departSpeed="max" from="1152875500" to="1152875244#3"/>
    <trip id="veh13" type="veh_passenger" depart="7.20" departLane="best" departSpeed="max" from="-1152875244#3" to="-1152875499#0"/>
    <trip id="veh14" type="veh_passenger" depart="7.76" departLane="best" departSpeed="max" from="-1152875244#3" to="-1152875499#0"/>
    <trip id="veh15" type="veh_passenger" depart="8.31" departLane="best" departSpeed="max" from="-1152875244#3" to="-1152875499#0"/>
    <trip id="veh16" type="veh_passenger" depart="8.87" departLane="best" departSpeed="max" from="-1152875244#3" to="-1152875499#0"/>
    <trip id="veh17" type="veh_passenger" depart="9.42" departLane="best" departSpeed="max" from="1152875500" to="1152875244#3"/>
    <trip id="veh18" type="veh_passenger" depart="9.97" departLane="best" departSpeed="max" from="-1152875244#3" to="-1152875499#0"/>
</routes>
