<?xml version="1.0" encoding="UTF-8"?>

<!-- generated on 2024-03-04 23:21:11.990864 by osmWebWizard.py UNKNOWN
<configuration>
    <net-file value="/home/styopakosolapov/sumo/tools/2024-03-04-23-21-00/osm.net.xml.gz"/>
    <output-trip-file value="/home/styopakosolapov/sumo/tools/2024-03-04-23-21-00/osm.passenger.trips.xml"/>
    <route-file value="/home/styopakosolapov/sumo/tools/2024-03-04-23-21-00/osm.passenger.rou.xml"/>
    <prefix value="veh"/>
    <trip-attributes value="departLane=&quot;best&quot;"/>
    <fringe-start-attributes value="departSpeed=&quot;max&quot;"/>
    <vehicle-class value="passenger"/>
    <lanes value="True"/>
    <fringe-factor value="5"/>
    <allow-fringe.min-length value="1000.0"/>
    <via-edge-types value="highway.motorway,highway.motorway_link,highway.trunk_link,highway.primary_link,highway.secondary_link,highway.tertiary_link"/>
    <min-distance value="300.0"/>
    <min-distance.fringe value="10.0"/>
    <remove-loops value="True"/>
    <validate value="True"/>
    <end value="300.0"/>
    <insertion-density value="5.0"/>
</configuration>
-->

<!-- generated on 2024-03-04 23:21:11 by Eclipse SUMO duarouter Version 1.19.0
<configuration xmlns:xsi="http://www.w3.org/2001/XMLSchema-instance" xsi:noNamespaceSchemaLocation="http://sumo.dlr.de/xsd/duarouterConfiguration.xsd">

    <input>
        <net-file value="/home/styopakosolapov/sumo/tools/2024-03-04-23-21-00/osm.net.xml.gz"/>
        <route-files value="/home/styopakosolapov/sumo/tools/2024-03-04-23-21-00/osm.passenger.trips.xml"/>
    </input>

    <output>
        <output-file value="/home/styopakosolapov/sumo/tools/2024-03-04-23-21-00/osm.passenger.trips.xml.tmp"/>
        <alternatives-output value="NUL"/>
        <write-trips value="true"/>
    </output>

    <processing>
        <remove-loops value="true"/>
    </processing>

    <time>
        <begin value="0.0"/>
        <end value="300.0"/>
    </time>

    <report>
        <no-warnings value="true"/>
        <ignore-errors value="true"/>
        <no-step-log value="true"/>
    </report>

</configuration>
-->

<routes xmlns:xsi="http://www.w3.org/2001/XMLSchema-instance" xsi:noNamespaceSchemaLocation="http://sumo.dlr.de/xsd/routes_file.xsd">
    <vType id="veh_passenger" vClass="passenger"/>
    <trip id="veh0" type="veh_passenger" depart="0.00" departLane="best" departSpeed="max" from="244427404#0" to="1152875244#2"/>
    <trip id="veh1" type="veh_passenger" depart="28.10" departLane="best" departSpeed="max" from="-153685343#3" to="-153685343#1"/>
    <trip id="veh2" type="veh_passenger" depart="56.20" departLane="best" from="244427404#2" to="153685188#1"/>
    <trip id="veh3" type="veh_passenger" depart="84.30" departLane="best" from="426574943#0" to="153479179#3"/>
    <trip id="veh4" type="veh_passenger" depart="112.40" departLane="best" from="1152875499#1" to="1152875244#3"/>
    <trip id="veh5" type="veh_passenger" depart="140.50" departLane="best" from="-1152875244#2" to="-153479179#1"/>
    <trip id="veh6" type="veh_passenger" depart="168.60" departLane="best" departSpeed="max" from="244427404#0" to="153479179#3"/>
    <trip id="veh7" type="veh_passenger" depart="196.70" departLane="best" from="-153479179#1" to="153685185"/>
    <trip id="veh8" type="veh_passenger" depart="224.80" departLane="best" from="27260022#10" to="1152875499#2"/>
    <trip id="veh9" type="veh_passenger" depart="252.90" departLane="best" departSpeed="max" from="27260022#0" to="153685188#1"/>
    <trip id="veh10" type="veh_passenger" depart="281.00" departLane="best" from="27260022#10" to="-1160171562#0"/>
</routes>
