<?xml version="1.0" encoding="UTF-8"?>

<!-- generated on 2024-04-06 15:24:10 by Eclipse SUMO netedit Version 1.19.0
-->

<routes xmlns:xsi="http://www.w3.org/2001/XMLSchema-instance" xsi:noNamespaceSchemaLocation="http://sumo.dlr.de/xsd/routes_file.xsd">
    <!-- VTypes -->
    <vType id="veh_passenger" vClass="passenger"/>
    <!-- Vehicles, persons and containers (sorted by depart) -->
    <trip id="veh0" type="veh_passenger" depart="0.00" departLane="best" departSpeed="max" from="-1155698043" to="-1155706689"/>
    <trip id="veh1" type="veh_passenger" depart="1.27" departLane="best" departSpeed="max" from="1152875245" to="1152869897#0"/>
    <trip id="veh2" type="veh_passenger" depart="2.53" departLane="best" departSpeed="max" from="-1155698043" to="-1155706689"/>
    <trip id="veh3" type="veh_passenger" depart="3.80" departLane="best" departSpeed="max" from="-1155698043" to="-1155706689"/>
    <trip id="veh4" type="veh_passenger" depart="5.06" departLane="best" departSpeed="max" from="1152875245" to="1152869897#0"/>
    <trip id="veh5" type="veh_passenger" depart="6.33" departLane="best" departSpeed="max" from="1152875245" to="1152869897#0"/>
    <trip id="veh6" type="veh_passenger" depart="7.59" departLane="best" departSpeed="max" from="-1155698043" to="-1155706689"/>
    <trip id="veh7" type="veh_passenger" depart="8.86" departLane="best" departSpeed="max" from="-1155698043" to="-1155706689"/>
    <trip id="veh8" type="veh_passenger" depart="10.12" departLane="best" departSpeed="max" from="1152875245" to="1152869897#0"/>
    <trip id="veh9" type="veh_passenger" depart="11.39" departLane="best" departSpeed="max" from="1152875245" to="1152869897#0"/>
    <trip id="veh10" type="veh_passenger" depart="12.65" departLane="best" departSpeed="max" from="1152875245" to="1152869897#0"/>
    <trip id="veh11" type="veh_passenger" depart="13.92" departLane="best" departSpeed="max" from="1152875245" to="1152869897#0"/>
    <trip id="veh12" type="veh_passenger" depart="15.18" departLane="best" departSpeed="max" from="1152875245" to="1152869897#0"/>
    <trip id="veh13" type="veh_passenger" depart="16.45" departLane="best" departSpeed="max" from="-1155698043" to="-1155706689"/>
    <trip id="veh14" type="veh_passenger" depart="17.71" departLane="best" departSpeed="max" from="-1155698043" to="-1155706689"/>
    <trip id="veh15" type="veh_passenger" depart="18.98" departLane="best" departSpeed="max" from="-1155698043" to="-1155706689"/>
    <trip id="veh16" type="veh_passenger" depart="20.24" departLane="best" departSpeed="max" from="-1155698043" to="-1155706689"/>
    <trip id="veh17" type="veh_passenger" depart="21.51" departLane="best" departSpeed="max" from="1152875245" to="1152869897#0"/>
    <trip id="veh18" type="veh_passenger" depart="22.77" departLane="best" departSpeed="max" from="-1155698043" to="-1155706689"/>
    <trip id="veh19" type="veh_passenger" depart="24.04" departLane="best" departSpeed="max" from="1152875245" to="1152869897#0"/>
    <trip id="veh20" type="veh_passenger" depart="25.30" departLane="best" departSpeed="max" from="1152875245" to="1152869897#0"/>
    <trip id="veh21" type="veh_passenger" depart="26.57" departLane="best" departSpeed="max" from="1152875245" to="1152869897#0"/>
    <trip id="veh22" type="veh_passenger" depart="27.83" departLane="best" departSpeed="max" from="-1155698043" to="-1155706689"/>
    <trip id="veh23" type="veh_passenger" depart="29.10" departLane="best" departSpeed="max" from="-1155698043" to="-1155706689"/>
    <trip id="veh24" type="veh_passenger" depart="30.36" departLane="best" departSpeed="max" from="-1155698043" to="-1155706689"/>
    <trip id="veh25" type="veh_passenger" depart="31.63" departLane="best" departSpeed="max" from="1152875245" to="1152869897#0"/>
    <trip id="veh26" type="veh_passenger" depart="32.89" departLane="best" departSpeed="max" from="-1155698043" to="-1155706689"/>
    <trip id="veh27" type="veh_passenger" depart="34.16" departLane="best" departSpeed="max" from="1152875245" to="1152869897#0"/>
    <trip id="veh28" type="veh_passenger" depart="35.42" departLane="best" departSpeed="max" from="-1155698043" to="-1155706689"/>
    <trip id="veh29" type="veh_passenger" depart="36.69" departLane="best" departSpeed="max" from="-1155698043" to="-1155706689"/>
    <trip id="veh30" type="veh_passenger" depart="37.95" departLane="best" departSpeed="max" from="1152875245" to="1152869897#0"/>
    <trip id="veh31" type="veh_passenger" depart="39.22" departLane="best" departSpeed="max" from="1152875245" to="1152869897#0"/>
    <trip id="veh32" type="veh_passenger" depart="40.48" departLane="best" departSpeed="max" from="1152875245" to="1152869897#0"/>
    <trip id="veh33" type="veh_passenger" depart="41.75" departLane="best" departSpeed="max" from="-1155698043" to="-1155706689"/>
    <trip id="veh34" type="veh_passenger" depart="43.01" departLane="best" from="-1152869898" to="-1155706689"/>
    <trip id="veh35" type="veh_passenger" depart="44.28" departLane="best" departSpeed="max" from="1152875245" to="1152869897#0"/>
    <trip id="veh36" type="veh_passenger" depart="45.54" departLane="best" departSpeed="max" from="1152875245" to="1152869897#0"/>
    <trip id="veh37" type="veh_passenger" depart="46.81" departLane="best" departSpeed="max" from="1152875245" to="1152869897#0"/>
    <trip id="veh38" type="veh_passenger" depart="48.07" departLane="best" from="-1152869898" to="-1155706689"/>
    <trip id="veh39" type="veh_passenger" depart="49.34" departLane="best" departSpeed="max" from="1152875245" to="1152869897#0"/>
    <trip id="veh40" type="veh_passenger" depart="50.60" departLane="best" departSpeed="max" from="-1155698043" to="-1155706689"/>
    <trip id="veh41" type="veh_passenger" depart="51.87" departLane="best" departSpeed="max" from="1152875245" to="1152869897#0"/>
    <trip id="veh42" type="veh_passenger" depart="53.13" departLane="best" departSpeed="max" from="-1155698043" to="-1155706689"/>
    <trip id="veh43" type="veh_passenger" depart="54.40" departLane="best" departSpeed="max" from="-1155698043" to="-1155706689"/>
    <trip id="veh44" type="veh_passenger" depart="55.67" departLane="best" departSpeed="max" from="1152875245" to="1152869897#0"/>
    <trip id="veh45" type="veh_passenger" depart="56.93" departLane="best" departSpeed="max" from="-1155698043" to="-1155706689"/>
    <trip id="veh46" type="veh_passenger" depart="58.20" departLane="best" departSpeed="max" from="1152875245" to="1152869897#0"/>
    <trip id="veh47" type="veh_passenger" depart="59.46" departLane="best" departSpeed="max" from="-1155698043" to="-1155706689"/>
    <trip id="veh48" type="veh_passenger" depart="60.73" departLane="best" departSpeed="max" from="-1155698043" to="-1155706689"/>
    <trip id="veh49" type="veh_passenger" depart="61.99" departLane="best" departSpeed="max" from="-1155698043" to="-1155706689"/>
    <trip id="veh50" type="veh_passenger" depart="63.26" departLane="best" departSpeed="max" from="1152875245" to="1152869897#0"/>
    <trip id="veh51" type="veh_passenger" depart="64.52" departLane="best" departSpeed="max" from="-1155698043" to="-1155706689"/>
    <trip id="veh52" type="veh_passenger" depart="65.79" departLane="best" departSpeed="max" from="-1155698043" to="-1155706689"/>
    <trip id="veh53" type="veh_passenger" depart="67.05" departLane="best" departSpeed="max" from="1152875245" to="1152869897#0"/>
    <trip id="veh54" type="veh_passenger" depart="68.32" departLane="best" departSpeed="max" from="-1155698043" to="-1155706689"/>
    <trip id="veh55" type="veh_passenger" depart="69.58" departLane="best" departSpeed="max" from="-1155698043" to="-1155706689"/>
    <trip id="veh56" type="veh_passenger" depart="70.85" departLane="best" departSpeed="max" from="-1155698043" to="-1155706689"/>
    <trip id="veh57" type="veh_passenger" depart="72.11" departLane="best" departSpeed="max" from="1152875245" to="1152869897#0"/>
    <trip id="veh58" type="veh_passenger" depart="73.38" departLane="best" departSpeed="max" from="1152875245" to="1152869897#0"/>
    <trip id="veh59" type="veh_passenger" depart="74.64" departLane="best" departSpeed="max" from="-1155698043" to="-1155706689"/>
    <trip id="veh60" type="veh_passenger" depart="75.91" departLane="best" departSpeed="max" from="-1155698043" to="-1155706689"/>
    <trip id="veh61" type="veh_passenger" depart="77.17" departLane="best" departSpeed="max" from="-1155698043" to="-1155706689"/>
    <trip id="veh62" type="veh_passenger" depart="78.44" departLane="best" departSpeed="max" from="1152875245" to="1152869898"/>
    <trip id="veh63" type="veh_passenger" depart="79.70" departLane="best" departSpeed="max" from="1152875245" to="1152869897#0"/>
    <trip id="veh64" type="veh_passenger" depart="80.97" departLane="best" departSpeed="max" from="-1155698043" to="-1155706689"/>
    <trip id="veh65" type="veh_passenger" depart="82.23" departLane="best" departSpeed="max" from="1152875245" to="1152869897#0"/>
    <trip id="veh66" type="veh_passenger" depart="83.50" departLane="best" departSpeed="max" from="1152875245" to="1152869897#0"/>
    <trip id="veh67" type="veh_passenger" depart="84.76" departLane="best" from="1152869898" to="1152869897#0"/>
    <trip id="veh68" type="veh_passenger" depart="86.03" departLane="best" departSpeed="max" from="-1155698043" to="-1155706689"/>
    <trip id="veh69" type="veh_passenger" depart="87.29" departLane="best" departSpeed="max" from="1152875245" to="1152869897#0"/>
    <trip id="veh70" type="veh_passenger" depart="88.56" departLane="best" departSpeed="max" from="-1155698043" to="-1155706689"/>
    <trip id="veh71" type="veh_passenger" depart="89.82" departLane="best" departSpeed="max" from="1152875245" to="1152869897#0"/>
    <trip id="veh72" type="veh_passenger" depart="91.09" departLane="best" departSpeed="max" from="1152875245" to="1152869897#0"/>
    <trip id="veh73" type="veh_passenger" depart="92.35" departLane="best" departSpeed="max" from="-1155698043" to="-1155706689"/>
    <trip id="veh74" type="veh_passenger" depart="93.62" departLane="best" departSpeed="max" from="-1155698043" to="-1155706689"/>
    <trip id="veh75" type="veh_passenger" depart="94.88" departLane="best" departSpeed="max" from="1152875245" to="1152869898"/>
    <trip id="veh76" type="veh_passenger" depart="96.15" departLane="best" departSpeed="max" from="-1155698043" to="-1155706689"/>
    <trip id="veh77" type="veh_passenger" depart="97.41" departLane="best" departSpeed="max" from="1152875245" to="1152869897#0"/>
    <trip id="veh78" type="veh_passenger" depart="98.68" departLane="best" departSpeed="max" from="-1155698043" to="-1155706689"/>
    <trip id="veh79" type="veh_passenger" depart="99.94" departLane="best" departSpeed="max" from="1152875245" to="1152869897#0"/>
</routes>
