<?xml version="1.0" encoding="UTF-8"?>

<!-- generated on 2024-04-06 15:25:17 by Eclipse SUMO netedit Version 1.19.0
-->

<routes xmlns:xsi="http://www.w3.org/2001/XMLSchema-instance" xsi:noNamespaceSchemaLocation="http://sumo.dlr.de/xsd/routes_file.xsd">
    <!-- VTypes -->
    <vType id="veh_passenger" vClass="passenger"/>
    <!-- Vehicles, persons and containers (sorted by depart) -->
    <trip id="veh0" type="veh_passenger" depart="0.00" departLane="best" departSpeed="max" from="-1155698043" to="-1155706689"/>
    <trip id="veh1" type="veh_passenger" depart="1.67" departLane="best" departSpeed="max" from="1152875245" to="1152869897#0"/>
    <trip id="veh2" type="veh_passenger" depart="3.34" departLane="best" departSpeed="max" from="-1155698043" to="-1155706689"/>
    <trip id="veh3" type="veh_passenger" depart="5.01" departLane="best" departSpeed="max" from="-1155698043" to="-1155706689"/>
    <trip id="veh4" type="veh_passenger" depart="6.68" departLane="best" departSpeed="max" from="1152875245" to="1152869897#0"/>
    <trip id="veh5" type="veh_passenger" depart="8.35" departLane="best" departSpeed="max" from="1152875245" to="1152869897#0"/>
    <trip id="veh6" type="veh_passenger" depart="10.02" departLane="best" departSpeed="max" from="-1155698043" to="-1155706689"/>
    <trip id="veh7" type="veh_passenger" depart="11.69" departLane="best" departSpeed="max" from="-1155698043" to="-1155706689"/>
    <trip id="veh8" type="veh_passenger" depart="13.36" departLane="best" departSpeed="max" from="1152875245" to="1152869897#0"/>
    <trip id="veh9" type="veh_passenger" depart="15.03" departLane="best" departSpeed="max" from="1152875245" to="1152869897#0"/>
    <trip id="veh10" type="veh_passenger" depart="16.71" departLane="best" departSpeed="max" from="1152875245" to="1152869897#0"/>
    <trip id="veh11" type="veh_passenger" depart="18.38" departLane="best" departSpeed="max" from="1152875245" to="1152869897#0"/>
    <trip id="veh12" type="veh_passenger" depart="20.05" departLane="best" departSpeed="max" from="1152875245" to="1152869897#0"/>
    <trip id="veh13" type="veh_passenger" depart="21.72" departLane="best" departSpeed="max" from="-1155698043" to="-1155706689"/>
    <trip id="veh14" type="veh_passenger" depart="23.39" departLane="best" departSpeed="max" from="-1155698043" to="-1155706689"/>
    <trip id="veh15" type="veh_passenger" depart="25.06" departLane="best" departSpeed="max" from="-1155698043" to="-1155706689"/>
    <trip id="veh16" type="veh_passenger" depart="26.73" departLane="best" departSpeed="max" from="-1155698043" to="-1155706689"/>
    <trip id="veh17" type="veh_passenger" depart="28.40" departLane="best" departSpeed="max" from="1152875245" to="1152869897#0"/>
    <trip id="veh18" type="veh_passenger" depart="30.07" departLane="best" departSpeed="max" from="-1155698043" to="-1155706689"/>
    <trip id="veh19" type="veh_passenger" depart="31.74" departLane="best" departSpeed="max" from="1152875245" to="1152869897#0"/>
    <trip id="veh20" type="veh_passenger" depart="33.41" departLane="best" departSpeed="max" from="1152875245" to="1152869897#0"/>
    <trip id="veh21" type="veh_passenger" depart="35.08" departLane="best" departSpeed="max" from="1152875245" to="1152869897#0"/>
    <trip id="veh22" type="veh_passenger" depart="36.75" departLane="best" departSpeed="max" from="-1155698043" to="-1155706689"/>
    <trip id="veh23" type="veh_passenger" depart="38.42" departLane="best" departSpeed="max" from="-1155698043" to="-1155706689"/>
    <trip id="veh24" type="veh_passenger" depart="40.09" departLane="best" departSpeed="max" from="-1155698043" to="-1155706689"/>
    <trip id="veh25" type="veh_passenger" depart="41.76" departLane="best" departSpeed="max" from="1152875245" to="1152869897#0"/>
    <trip id="veh26" type="veh_passenger" depart="43.43" departLane="best" departSpeed="max" from="-1155698043" to="-1155706689"/>
    <trip id="veh27" type="veh_passenger" depart="45.10" departLane="best" departSpeed="max" from="1152875245" to="1152869897#0"/>
    <trip id="veh28" type="veh_passenger" depart="46.78" departLane="best" departSpeed="max" from="-1155698043" to="-1155706689"/>
    <trip id="veh29" type="veh_passenger" depart="48.45" departLane="best" departSpeed="max" from="-1155698043" to="-1155706689"/>
    <trip id="veh30" type="veh_passenger" depart="50.12" departLane="best" departSpeed="max" from="1152875245" to="1152869897#0"/>
    <trip id="veh31" type="veh_passenger" depart="51.79" departLane="best" departSpeed="max" from="1152875245" to="1152869897#0"/>
    <trip id="veh32" type="veh_passenger" depart="53.46" departLane="best" departSpeed="max" from="1152875245" to="1152869897#0"/>
    <trip id="veh33" type="veh_passenger" depart="55.13" departLane="best" departSpeed="max" from="-1155698043" to="-1155706689"/>
    <trip id="veh34" type="veh_passenger" depart="56.80" departLane="best" from="-1152869898" to="-1155706689"/>
    <trip id="veh35" type="veh_passenger" depart="58.47" departLane="best" departSpeed="max" from="1152875245" to="1152869897#0"/>
    <trip id="veh36" type="veh_passenger" depart="60.14" departLane="best" departSpeed="max" from="1152875245" to="1152869897#0"/>
    <trip id="veh37" type="veh_passenger" depart="61.81" departLane="best" departSpeed="max" from="1152875245" to="1152869897#0"/>
    <trip id="veh38" type="veh_passenger" depart="63.48" departLane="best" from="-1152869898" to="-1155706689"/>
    <trip id="veh39" type="veh_passenger" depart="65.15" departLane="best" departSpeed="max" from="1152875245" to="1152869897#0"/>
    <trip id="veh40" type="veh_passenger" depart="66.82" departLane="best" departSpeed="max" from="-1155698043" to="-1155706689"/>
    <trip id="veh41" type="veh_passenger" depart="68.49" departLane="best" departSpeed="max" from="1152875245" to="1152869897#0"/>
    <trip id="veh42" type="veh_passenger" depart="70.16" departLane="best" departSpeed="max" from="-1155698043" to="-1155706689"/>
    <trip id="veh43" type="veh_passenger" depart="71.83" departLane="best" departSpeed="max" from="-1155698043" to="-1155706689"/>
    <trip id="veh44" type="veh_passenger" depart="73.50" departLane="best" departSpeed="max" from="1152875245" to="1152869897#0"/>
    <trip id="veh45" type="veh_passenger" depart="75.17" departLane="best" departSpeed="max" from="-1155698043" to="-1155706689"/>
    <trip id="veh46" type="veh_passenger" depart="76.85" departLane="best" departSpeed="max" from="1152875245" to="1152869897#0"/>
    <trip id="veh47" type="veh_passenger" depart="78.52" departLane="best" departSpeed="max" from="-1155698043" to="-1155706689"/>
    <trip id="veh48" type="veh_passenger" depart="80.19" departLane="best" departSpeed="max" from="-1155698043" to="-1155706689"/>
    <trip id="veh49" type="veh_passenger" depart="81.86" departLane="best" departSpeed="max" from="-1155698043" to="-1155706689"/>
    <trip id="veh50" type="veh_passenger" depart="83.53" departLane="best" departSpeed="max" from="1152875245" to="1152869897#0"/>
    <trip id="veh51" type="veh_passenger" depart="85.20" departLane="best" departSpeed="max" from="-1155698043" to="-1155706689"/>
    <trip id="veh52" type="veh_passenger" depart="86.87" departLane="best" departSpeed="max" from="-1155698043" to="-1155706689"/>
    <trip id="veh53" type="veh_passenger" depart="88.54" departLane="best" departSpeed="max" from="1152875245" to="1152869897#0"/>
    <trip id="veh54" type="veh_passenger" depart="90.21" departLane="best" departSpeed="max" from="-1155698043" to="-1155706689"/>
    <trip id="veh55" type="veh_passenger" depart="91.88" departLane="best" departSpeed="max" from="-1155698043" to="-1155706689"/>
    <trip id="veh56" type="veh_passenger" depart="93.55" departLane="best" departSpeed="max" from="-1155698043" to="-1155706689"/>
    <trip id="veh57" type="veh_passenger" depart="95.22" departLane="best" departSpeed="max" from="1152875245" to="1152869897#0"/>
    <trip id="veh58" type="veh_passenger" depart="96.89" departLane="best" departSpeed="max" from="1152875245" to="1152869897#0"/>
    <trip id="veh59" type="veh_passenger" depart="98.56" departLane="best" departSpeed="max" from="-1155698043" to="-1155706689"/>
</routes>
